FoamFile
{
    version     2.0;
    format      ascii;
    class       volScalarField;
    object      T;
}

dimensions      [0 0 0 1 0 0 0];

internalField   uniform 293;

boundaryField
{
    cpSide 
    {
        type            zeroGradient;
    }

   cpUpper 
    {
        type            zeroGradient;
    }

   finOutSurface 
    {
        type            zeroGradient;
    }

   cpBottom 
    {
        //type            fixedValue;
        //value           uniform 293;
        type            zeroGradient;
    }
}

