// the trial of create mesh with blockmeshdick file.
FoamFile
{
		version 2.0;
		format	ascii;
		class	dictionary;
		object	blockMeshDict;
}


convertToMeters 0.001;

vertices
(
	(0	0	0)
	(100	0	0)
	(100	10	0)
	(0	10	0)
	(0	0	10)
	(100 0 10)
	(100	10	10)
	(0 10 10)

);

blocks
(
	hex (0 1 2 3 4 5 6 7)
	(10 1 1)
	simpleGrading (1 1 1)
);

boundary
(
	inlet
	{
		type patch;
		faces
		(
			(0 4 7 3)
		);
		}
	outlet
	{
		type patch;
		faces
		(
		 (1 2 6 5)
		);
	}
	walls
	{
		type wall;
		faces
		(
			(0 1 5 4)
			(0 3 2 1)
			(3 7 6 2)
			(4 5 6 7)
		);
		}
);

mergePatchPairs
(
);
