// the trial of create mesh of coldplate.
FoamFile
{
		version 2.0;
		format	ascii;
		class	dictionary;
		object	blockMeshDict;
}


convertToMeters 0.001;

vertices
(
 //for the cold plate base
	(19.091883 -19.091883 0)
	(19.091883 19.091883 0)
	(-19.091883 19.091883 0)
	(-19.091883 -19.091883 0)
	(19.091883 -19.091883 0.85)
	(19.091883 19.091883 0.85)
	(-19.091883 19.091883 0.85)
	(-19.091883 -19.091883 0.85)

	// for fins
  (-1 -16 0.85)
	(1 -16 0.85)
	(1 16 0.85)
	(-1 16 0.85)
  (-1 -16 4)
	(1 -16 4)
	(1 16 4)
	(-1 16 4)
);

edges // create the round base of coldplate
(
	arc 0 1 ( 27 0 0)
	arc 4 5 ( 27 0 0.85)
	arc 1 2 ( 0 27 0)
	arc 5 6( 0 27 0.85)
	arc 2 3( -27 0 0)
	arc 6 7( -27 0 0.85)
	arc 3 0( 0 -27 0)
	arc 7 4( 0 -27 0.85)
);

blocks
(
	hex (0 1 2 3 4 5 6 7) (20 20 10) simpleGrading (1 1 1)
	hex (8 9 10 11 12 13 14 15) (2 20 40) simpleGrading (1 1 1) 
);

boundary
(
  cpBottom	
	{
		type patch;
		faces
		(
			(0 3 2 1)
		);
		}

	finOutSurface	
	{
		type patch;
		faces
		(
		   (12 13 14 15)
			 (15 14 10 11)
			 (10 14 13 9)
			 (13 12 8 9)
			 (8 12 15 11)
		);
	}

	cpSide
	{
		type patch;
		faces
		(
			(0 1 5 4)
			(3 7 6 2)
		 (1 2 6 5)
			(0 4 7 3)
		);
		}

  cpUpper 
  {
		type patch;
		faces
    (
      (4 5 6 7)
    );
	}

  finBottom
  {
		type wall;
		faces
			(
			 (8 11 10 9)
			);
	}
);

mergePatchPairs
(
 (cpUpper finBottom) 
);
